The contents of file one.
Line two.
New line.
